[General]
#scheduler-class = "inet::cRealTimeScheduler" #so that speed appears realistic
#debug-on-errors = true
tkenv-plugin-path = ../../../etc/plugins
sim-time-limit = 1day

**.constraintAreaMinX = 0m
**.constraintAreaMinY = 0m
**.constraintAreaMinZ = 0m
**.constraintAreaMaxX = 5000m
**.constraintAreaMaxY = 5000m
**.constraintAreaMaxZ = 0m
**.updateInterval = 1s # test with 0s too, and let getCurrentPosition update the display string from a test module
**.mobility.initFromDisplayString = false

network = SOLARNetwork
*.numUsers = 100
#Model
**.SOLARcoordinator.numhost=100
**.SOLARcoordinator.numplaces=10
**.SOLARcoordinator.hrange=200
**.SOLARcoordinator.tschedule=28800
**.SOLARcoordinator.xmax=5000
**.SOLARcoordinator.ymax=5000
**.SOLARcoordinator.positionsAddress = "/home/leonardo/Desktop/w_comnets/solar_parameters/positions/"
**.SOLARcoordinator.probabilitiesAddress = "/home/leonardo/Desktop/w_comnets/solar_parameters/probability/"
**.SOLARcoordinator.numMatrix = 3
**.SOLARcoordinator.isPositionRandom = false
**.SOLARcoordinator.isProbabilityRandom = false
#Users
**.user*.mobilityType = "SOLARmember"
**.user*.mobility.intraspeed = uniform(1mps,3mps)
**.user*.mobility.interspeed = uniform(6mps,11mps)
**.user*.mobility.waitTime = 1s
**.user*.mobility.tupdate=uniform(50,100)
